case_files/d_iceland.m
% File generated by PSAT from PSS/E data file.
% ------------------------------------------------------------------------------
% Author:   Federico Milano
% E-mail:   fmilano@thunderbox.uwaterloo.ca
% Web-site: http://thunderbox.uwaterloo.ca/~fmilano
% Coauthor: Juan Carlos Morataya
% E-mail:   jc.morataya@ieee.org
% ------------------------------------------------------------------------------
% LANDSNET - LANGTIMAAAETLUN
% ISLAND-2007 STAEKKUN NORDURALS
% ------------------------------------------------------------------------------

Bus.con = [ ...
    1.0000  220.0000    1.0464   -0.0846    1.0000    1.0000;
    2.0000   13.8000    0.9900    0.0574    1.0000    4.0000;
    3.0000   13.8000    0.9900    0.0542    1.0000    4.0000;
    4.0000   13.8000    0.9922   -0.0381    1.0000    4.0000;
    5.0000   66.0000    0.9827    0.0295    1.0000    1.0000;
    6.0000   66.0000    0.9827    0.0295    1.0000    1.0000;
    7.0000  220.0000    1.0629   -0.0621    1.0000    1.0000;
    8.0000   10.5000    0.9900         0    1.0000    4.0000;
    9.0000   10.5000    0.9900         0    1.0000    4.0000;
   10.0000   10.5000    0.9900         0    1.0000    4.0000;
   11.0000  132.0000    0.9875   -0.0707    1.0000    1.0000;
   12.0000  220.0000    1.0604   -0.0648    1.0000    4.0000;
   13.0000   13.8000    0.9900    0.0459    1.0000    4.0000;
   14.0000   13.8000    0.9900    0.0459    1.0000    4.0000;
   15.0000  220.0000    1.0636   -0.0601    1.0000    1.0000;
   16.0000   11.0000    0.9900    0.0600    1.0000    4.0000;
   17.0000  220.0000    1.0464   -0.0898    1.0000    1.0000;
   18.0000   11.0000    1.0600    0.0024    1.0000    4.0000;
   19.0000   11.0000    1.0600    0.0024    1.0000    4.0000;
   20.0000  220.0000    1.0465   -0.0899    1.0000    1.0000;
   21.0000  220.0000    1.0442   -0.0897    1.0000    1.0000;
   22.0000   66.0000    0.9571   -0.0107    2.0000    2.0000;
   23.0000   66.0000    0.9686    0.0046    2.0000    2.0000;
   24.0000   66.0000    0.9616   -0.0196    2.0000    2.0000;
   25.0000  220.0000    1.0317   -0.1160    2.0000    1.0000;
   26.0000  132.0000    1.0297   -0.0847    2.0000    1.0000;
   27.0000   10.5000    1.0200   -0.0196    2.0000    4.0000;
   28.0000   10.5000    1.0200   -0.0193    2.0000    4.0000;
   29.0000   10.5000    1.0200   -0.0253    2.0000    4.0000;
   30.0000   66.0000    1.0126   -0.0408    2.0000    1.0000;
   31.0000   66.0000    1.0177   -0.0247    2.0000    1.0000;
   32.0000    6.6000    1.0300    0.0376    2.0000    4.0000;
   33.0000    6.6000    1.0300    0.0376    2.0000    4.0000;
   34.0000    6.6000    1.0177   -0.0247    2.0000    4.0000;
   35.0000   66.0000    1.0109   -0.0368    2.0000    1.0000;
   36.0000    6.6000    1.0234    0.0084    2.0000    4.0000;
   37.0000   11.0000    0.9854   -0.0803    2.0000    4.0000;
   38.0000   66.0000    1.0109   -0.0368    2.0000    2.0000;
   39.0000  220.0000    1.0235   -0.1300    1.0000    1.0000;
   40.0000  132.0000    1.0220   -0.1092    1.0000    1.0000;
   41.0000  220.0000    1.0238   -0.1296    2.0000    1.0000;
   42.0000   11.0000    1.0500   -0.0349    2.0000    3.0000;
   43.0000   11.0000    1.0500   -0.0349    2.0000    3.0000;
   44.0000   66.0000    0.9745   -0.0382    2.0000    2.0000;
   45.0000   33.0000    0.9227   -0.0677    2.0000    2.0000;
   46.0000  220.0000    1.0341   -0.1107    2.0000    1.0000;
   47.0000  132.0000    1.0220   -0.1092    2.0000    1.0000;
   48.0000  220.0000    1.0235   -0.1300    2.0000    1.0000;
   49.0000  132.0000    1.0335   -0.1199    2.0000    1.0000;
   50.0000   11.0000    1.0500   -0.0677    2.0000    3.0000;
   51.0000   11.0000    1.0500   -0.0677    2.0000    3.0000;
   52.0000   11.0000    1.0500   -0.0677    2.0000    3.0000;
   53.0000   11.0000    1.0500   -0.0677    2.0000    3.0000;
   54.0000   66.0000    1.0110   -0.0368    2.0000    3.0000;
   55.0000  132.0000    1.0331   -0.1205    2.0000    1.0000;
   56.0000  132.0000    1.0261   -0.1321    2.0000    1.0000;
   57.0000  220.0000    1.0212   -0.1400    2.0000    1.0000;
   58.0000  132.0000    1.0242   -0.1324    2.0000    1.0000;
   59.0000  132.0000    1.0214   -0.1345    2.0000    1.0000;
   60.0000   21.0000    0.9806   -0.2659    2.0000   10.0000;
   61.0000  220.0000    1.0119   -0.1493    2.0000   10.0000;
   62.0000  220.0000    1.0136   -0.1472    2.0000   10.0000;
   63.0000   33.0000    1.0000   -0.2304    2.0000   10.0000;
   64.0000  220.0000    1.0153   -0.1446    2.0000   10.0000;
   65.0000   33.0000    1.0347   -0.1446    2.0000   10.0000;
   66.0000  220.0000    1.0153   -0.1446    2.0000   10.0000;
   67.0000   33.0000    1.0347   -0.1446    2.0000   10.0000;
   68.0000   33.0000    1.0347   -0.1446    2.0000    1.0000;
   69.0000  132.0000    1.0233   -0.1348    2.0000    1.0000;
   70.0000   33.0000    1.0024   -0.1700    2.0000    3.0000;
   71.0000  220.0000    1.0153   -0.1446    2.0000    1.0000;
   72.0000  132.0000    1.0299   -0.1182    2.0000    1.0000;
   73.0000  132.0000    1.0292   -0.1188    2.0000    6.0000;
   74.0000   11.0000    1.0030   -0.1962    2.0000    6.0000;
   75.0000  220.0000    1.0215   -0.1339    2.0000    1.0000;
   76.0000  220.0000    1.0067   -0.2191    2.0000    1.0000;
   77.0000  132.0000    0.9859   -0.2126    2.0000    1.0000;
   78.0000   66.0000    1.0090   -0.2424    2.0000    1.0000;
   79.0000   11.0000    1.0090   -0.2424    2.0000    2.0000;
   80.0000  220.0000    1.0046   -0.2238    2.0000   11.0000;
   81.0000  220.0000    1.0043   -0.2259    2.0000   12.0000;
   82.0000  132.0000    1.0207   -0.1351    2.0000    3.0000;
   83.0000   11.0000    1.0595   -0.1524    2.0000    3.0000;
   84.0000  132.0000    1.0225   -0.1355    2.0000    3.0000;
   85.0000   11.0000    0.9942   -0.1707    2.0000    3.0000;
   86.0000  132.0000    1.0203   -0.1353    2.0000    3.0000;
   87.0000   11.0000    0.9969   -0.1362    2.0000    3.0000;
   88.0000  132.0000    1.0278   -0.1231    2.0000    3.0000;
   89.0000   11.0000    0.9760   -0.1582    2.0000    3.0000;
   90.0000  132.0000    1.0286   -0.1223    2.0000    3.0000;
   91.0000   11.0000    1.0175   -0.1407    2.0000    3.0000;
   92.0000  132.0000    1.0287   -0.1221    2.0000    3.0000;
   93.0000  132.0000    1.0295    0.0211    2.0000    5.0000;
   94.0000  132.0000    1.0336    0.0589    2.0000    5.0000;
   95.0000   11.0000    1.0336    0.0589    1.0000    5.0000;
   96.0000  132.0000    1.0318    0.0529    2.0000    5.0000;
   97.0000  132.0000    1.0333    0.0865    2.0000    5.0000;
   98.0000   11.0000    1.0300    0.1673    2.0000    5.0000;
   99.0000   11.0000    1.0300    0.1673    2.0000    5.0000;
  100.0000   11.0000    1.0333    0.0865    1.0000    5.0000;
  101.0000   11.0000    1.0333    0.0865    1.0000    5.0000;
  102.0000   11.0000    1.0500    0.1716    2.0000    5.0000;
  103.0000  132.0000    0.9835   -0.2044    3.0000    1.0000;
  104.0000   66.0000    0.9974   -0.2932    3.0000    1.0000;
  105.0000   19.0000    0.9793   -0.3247    3.0000    2.0000;
  106.0000    0.4100    0.9793   -0.3247    3.0000    2.0000;
  107.0000   11.0000    0.9974   -0.2932    3.0000    2.0000;
  108.0000   11.0000    0.9793   -0.3247    3.0000    2.0000;
  109.0000  132.0000    0.9916   -0.1494    3.0000    1.0000;
  110.0000   19.0000    0.9890   -0.1638    3.0000    2.0000;
  111.0000    0.4100    0.9890   -0.1638    3.0000    2.0000;
  112.0000   11.0000    0.9890   -0.1638    3.0000    2.0000;
  113.0000  132.0000    0.9895   -0.1742    3.0000    1.0000;
  114.0000   33.0000    1.0663   -0.1991    3.0000    7.0000;
  115.0000  132.0000    0.9805   -0.2101    3.0000    1.0000;
  116.0000   66.0000    0.9919   -0.2839    3.0000    1.0000;
  117.0000    6.3000    1.0332   -0.2433    3.0000    7.0000;
  118.0000   33.0000    1.0110   -0.2581    3.0000    7.0000;
  119.0000  132.0000    0.9925   -0.1297    3.0000    1.0000;
  120.0000   19.0000    1.0027   -0.1493    3.0000    2.0000;
  121.0000    0.4100    1.0027   -0.1493    3.0000    2.0000;
  122.0000   11.0000    1.0027   -0.1493    3.0000    2.0000;
  123.0000  132.0000    1.0082   -0.0134    4.0000    1.0000;
  124.0000   33.0000    1.0343   -0.0726    4.0000    2.0000;
  125.0000  132.0000    1.0200    0.0428    4.0000    1.0000;
  126.0000   11.0000    1.0243    0.1036    4.0000    4.0000;
  127.0000   11.0000    1.0243    0.1036    4.0000    4.0000;
  128.0000   11.0000    1.0243    0.1036    4.0000    4.0000;
  129.0000   11.0000    1.0243    0.1036    4.0000    4.0000;
  130.0000  132.0000    1.0183    0.0407    4.0000    1.0000;
  131.0000   66.0000    1.0426   -0.0320    4.0000    2.0000;
  132.0000  132.0000    1.0179    0.0546    4.0000    1.0000;
  133.0000   66.0000    1.0287    0.0445    4.0000    8.0000;
  134.0000   11.0000    1.0046    0.0041    4.0000    2.0000;
  135.0000    0.4100    1.0046    0.0041    4.0000    2.0000;
  136.0000   11.0000    1.0046    0.0041    4.0000    2.0000;
  137.0000  132.0000    1.0200    0.0769    4.0000    1.0000;
  138.0000   11.0000    0.9983    0.1880    4.0000    4.0000;
  139.0000   11.0000    0.9998    0.1907    4.0000    2.0000;
  140.0000    0.4100    0.9990    0.1894    4.0000    4.0000;
  141.0000   11.0000    1.0168    0.2483    4.0000    1.0000;
  142.0000   11.0000    1.0168    0.2483    4.0000    4.0000;
  143.0000   66.0000    1.0579    0.1103    4.0000    1.0000;
  144.0000   11.0000    1.0591    0.1763    4.0000    4.0000;
  145.0000   33.0000    1.0321    0.1103    4.0000    4.0000;
  146.0000    6.6000    1.0579    0.1128    4.0000    4.0000;
  147.0000   11.0000    1.0579    0.1104    4.0000    4.0000;
  148.0000    0.3800    1.0580    0.1446    4.0000    4.0000;
  149.0000    0.2200    1.0579    0.1116    4.0000    4.0000;
  150.0000    0.3800    1.0579    0.1122    4.0000    4.0000;
  151.0000    0.2200    1.0579    0.1122    4.0000    4.0000;
  152.0000    6.6000    1.0579    0.1128    4.0000    4.0000;
  153.0000    6.6000    1.0579    0.1122    4.0000    4.0000;
  154.0000    0.2200    1.0579    0.1128    4.0000    4.0000;
  155.0000  132.0000    1.0277   -0.0854    4.0000    1.0000;
  156.0000   66.0000    1.0251   -0.1489    4.0000    2.0000;
  157.0000  132.0000    1.0253   -0.0882    4.0000    2.0000;
  158.0000  132.0000    1.0229   -0.0942    4.0000    1.0000;
  159.0000   66.0000    1.0269   -0.1435    4.0000    1.0000;
  160.0000   11.0000    1.0269   -0.1435    4.0000    2.0000;
  161.0000  132.0000    1.0271   -0.0917    4.0000    1.0000;
  162.0000   11.0000    1.0026   -0.1237    4.0000    2.0000;
  163.0000   33.0000    1.0069   -0.1069    4.0000    2.0000;
  164.0000    0.4100    1.0026   -0.1237    4.0000    2.0000;
  165.0000   11.0000    1.0069   -0.1069    4.0000    2.0000;
  166.0000  132.0000    1.0227   -0.0953    4.0000    1.0000;
  167.0000   11.0000    1.0017   -0.1341    4.0000    2.0000;
  168.0000    0.4100    1.0017   -0.1341    4.0000    2.0000;
  169.0000   11.0000    1.0017   -0.1341    4.0000    2.0000;
  170.0000  132.0000    1.0355   -0.1133    4.0000    1.0000;
  171.0000   19.0000    1.0017   -0.1341    4.0000    2.0000;
  172.0000  132.0000    1.0096   -0.0885    4.0000    1.0000;
  173.0000   19.0000    1.0071   -0.1019    4.0000    2.0000;
  174.0000    0.4100    1.0071   -0.1019    4.0000    2.0000;
  175.0000   11.0000    1.0071   -0.1019    4.0000    2.0000;
  176.0000  132.0000    1.0285   -0.0670    4.0000    1.0000;
  177.0000  220.0000    0.9974   -0.0750    4.0000    1.0000;
  178.0000   11.0000    0.9803   -0.1036    4.0000   13.0000;
  179.0000   69.0000    0.9964   -0.0786    4.0000   13.0000;
  180.0000   69.0000    0.9964   -0.0786    4.0000   13.0000;
  181.0000   69.0000    0.9964   -0.0786    4.0000   13.0000;
  182.0000   69.0000    0.9964   -0.0786    4.0000   13.0000;
  183.0000   69.0000    0.9964   -0.0786    4.0000   13.0000;
  184.0000   11.0000    0.9803   -0.1037    4.0000   13.0000;
  185.0000   66.0000    1.0100   -0.1583    4.0000    2.0000;
  186.0000    6.6000    1.0142   -0.1241    4.0000    2.0000;
  187.0000   11.0000    1.0100   -0.1583    1.0000    1.0000;
  188.0000  220.0000    0.9964   -0.0786    4.0000   13.0000;
  189.0000  220.0000    0.9964   -0.0793    4.0000   13.0000;
   ];

SW.con = [ ...
10   69.30  10.50  0.99000 0.00  0.54834 -0.28860 1.1 0.9  0.41865 1];

PV.con = [ ...
2  106.60  13.80  0.84428  0.99000  0.31895 -0.18762 1.1 0.9 1;
3  106.60  13.80  0.84428  0.99000  0.31895 -0.18762 1.1 0.9 1;
4   53.30  13.80  0.84428  0.99220  0.31895 -0.18762 1.1 0.9 1;
8   69.30  10.50  0.41865  0.99000  0.54834 -0.28860 1.1 0.9 1;
9   69.30  10.50  0.41865  0.99000  0.54834 -0.28860 1.1 0.9 1;
13   81.50  13.80  0.73620  0.99000  0.51534 -0.24540 1.1 0.9 1;
14   81.50  13.80  0.73620  0.99000  0.51534 -0.24540 1.1 0.9 1;
16   53.30  11.00  0.84428  0.99000  0.31895 -0.18762 1.1 0.9 1;
18   66.67  11.00  0.89997  1.06000  0.62997 -0.29999 1.1 0.9 1;
19   66.67  11.00  0.89997  1.06000  0.62997 -0.29999 1.1 0.9 1;
27   19.40  10.50  0.67010  1.02000  0.59794 -0.25773 1.1 0.9 1;
28   19.40  10.50  0.67010  1.02000  0.59794 -0.25773 1.1 0.9 1;
29   21.00  10.50  0.61905  1.02000  0.60000 -0.23810 1.1 0.9 1;
32   16.50   6.60  0.66667  1.03000  0.60000 -0.30303 1.1 0.9 1;
33   16.50   6.60  0.66667  1.03000  0.60000 -0.30303 1.1 0.9 1;
36   18.20   6.60  0.80220  1.02340  0.18132 -0.10989 1.1 0.9 1;
42   55.00  11.00  0.72727  1.05000  0.40000 -0.36364 1.1 0.9 1;
43   55.00  11.00  0.72727  1.05000  0.40000 -0.36364 1.1 0.9 1;
50   40.00  11.00  0.75000  1.05000  0.50000 -0.50000 1.1 0.9 1;
51   40.00  11.00  0.75000  1.05000  0.50000 -0.50000 1.1 0.9 1;
52   40.00  11.00  0.75000  1.05000  0.50000 -0.50000 1.1 0.9 1;
53   40.00  11.00  0.75000  1.05000  0.50000 -0.50000 1.1 0.9 1;
98   55.00  11.00  0.90909  1.03000  0.41818 -0.29091 1.1 0.9 1;
99   55.00  11.00  0.90909  1.03000  0.41818 -0.29091 1.1 0.9 1;
102   67.50  11.00  0.88889  1.05000  0.44444 -0.38519 1.1 0.9 1;
104   10.00  66.00  0.40000  0.99740  0.33000 -0.33000 1.1 0.9 1;
117   20.20   6.30  0.29703  1.03320  0.12376  0.00000 1.1 0.9 1;
126   60.00  11.00  0.63333  1.02430  0.36667 -0.20000 1.1 0.9 1;
127   60.00  11.00  0.63333  1.02430  0.36667 -0.20000 1.1 0.9 1;
138   37.50  11.00  0.80000  0.99830  0.49867 -0.42667 1.1 0.9 1;
139   37.50  11.00  0.80000  0.99980  0.49867 -0.42667 1.1 0.9 1;
142    3.50  11.00  0.85714  1.01680  0.37143  0.00000 1.1 0.9 1;
144   28.00  11.00  0.71429  1.05910  0.60000  0.00000 1.1 0.9 1;
186   10.00   6.60  0.60000  1.01420  0.60000  0.00000 1.1 0.9 1;
   ];

PQ.con = [ ...
2 100.000    13.80  0.00593  0.00258 1.1 0.9 1 1;
3 100.000    13.80  0.03525  0.01533 1.1 0.9 1 1;
22 100.000    66.00  0.07331  0.07098 1.1 0.9 1 1;
23 100.000    66.00  0.02840  0.01893 1.1 0.9 1 1;
24 100.000    66.00  0.05609  0.04732 1.1 0.9 1 1;
37 100.000    11.00  0.02825  0.01229 1.1 0.9 1 1;
38 100.000    66.00  0.05851  0.03532 1.1 0.9 1 1;
44 100.000    66.00  0.08257  0.05120 1.1 0.9 1 1;
45 100.000    33.00  0.04009  0.02730 1.1 0.9 1 1;
49 100.000   132.00  0.07554  0.02500 1.1 0.9 1 1;
54 100.000    66.00  0.06232  0.02048 1.1 0.9 1 1;
60 100.000    21.00  2.00859  0.68465 1.1 0.9 1 1;
63 100.000    33.00  1.10141  0.36813 1.1 0.9 1 1;
65 100.000    33.00  0.50000  0.12000 1.1 0.9 1 1;
67 100.000    33.00  0.80000  0.20000 1.1 0.9 1 1;
68 100.000    33.00  0.56000  0.14000 1.1 0.9 1 1;
70 100.000    33.00  0.34045  0.20904 1.1 0.9 1 1;
74 100.000    11.00  0.17331  0.09281 1.1 0.9 1 1;
77 100.000   132.00  0.00545  0.00237 1.1 0.9 1 1;
78 100.000    66.00  0.07764  0.03378 1.1 0.9 1 1;
80 100.000   220.00  1.25011  0.31300 1.1 0.9 1 1;
81 100.000   220.00  3.79000  0.92490 1.1 0.9 1 1;
83 100.000    11.00  0.25983  0.18840 1.1 0.9 1 1;
85 100.000    11.00  0.15826  0.10918 1.1 0.9 1 1;
87 100.000    11.00  0.08336  0.08964 1.1 0.9 1 1;
89 100.000    11.00  0.15467  0.08045 1.1 0.9 1 1;
91 100.000    11.00  0.08262  0.04252 1.1 0.9 1 1;
93 100.000   132.00  0.15108  0.10000 1.1 0.9 1 1;
102 100.000    11.00  0.03777  0.01250 1.1 0.9 1 1;
104 100.000    66.00  0.22135  0.04053 1.1 0.9 1 1;
105 100.000    19.00  0.05351  0.02328 1.1 0.9 1 1;
110 100.000    19.00  0.01800  0.00200 1.1 0.9 1 1;
114 100.000    33.00  0.03000 -0.01000 1.1 0.9 1 1;
116 100.000    66.00  0.20000  0.02111 1.1 0.9 1 1;
117 100.000     6.30  0.04000  0.01051 1.1 0.9 1 1;
120 100.000    19.00  0.02568  0.01118 1.1 0.9 1 1;
124 100.000    33.00  0.05000  0.00920 1.1 0.9 1 1;
131 100.000    66.00  0.09000  0.01470 1.1 0.9 1 1;
133 100.000    66.00  0.13000  0.01000 1.1 0.9 1 1;
134 100.000    11.00  0.04082  0.01776 1.1 0.9 1 1;
139 100.000    11.00  0.02266  0.00986 1.1 0.9 1 1;
143 100.000    66.00  0.08083  0.00503 1.1 0.9 1 1;
154 100.000     0.22  0.00000  0.00000 1.1 0.9 1 1;
155 100.000   132.00  0.00010  0.00010 1.1 0.9 1 1;
156 100.000    66.00  0.17375  0.04400 1.1 0.9 1 1;
159 100.000    66.00  0.10143  0.02700 1.1 0.9 1 1;
162 100.000    11.00  0.02871  0.00400 1.1 0.9 1 1;
167 100.000    11.00  0.07261  0.00400 1.1 0.9 1 1;
173 100.000    19.00  0.01730  0.00200 1.1 0.9 1 1;
178 100.000    11.00  0.05200  0.03000 1.1 0.9 1 1;
184 100.000    11.00  0.05212  0.03000 1.1 0.9 1 1;
185 100.000    66.00  0.09666  0.01600 1.1 0.9 1 1;
   ];

Shunt.con = [ ...
58 100.000   132.00 60  0.00000  0.3;
71 100.000   220.00 60  0.00000  0.08;
72 100.000   132.00 60  0.00000  0.43;
76 100.000   220.00 60  0.00000  0.75;
   ];

Line.con = [ ...
  1 7   100.00   220.00 60 0  0.00  0.00550  0.03340  0.04711  0.00000  0.00000     3.040    0    0.000;
  1 17   100.00   220.00 60 0  0.00  0.00059  0.00818  0.02064  0.00000  0.00000     9.430    0    0.000;
  1 21   100.00   220.00 60 0  0.00  0.00138  0.00908  0.01280  0.00000  0.00000     3.170    0    0.000;
  1 46   100.00   220.00 60 0  0.00  0.00750  0.04531  0.06412  0.00000  0.00000     3.040    0   0.000;
  1 71   100.00   220.00 60 0  0.00  0.00607  0.08107  0.20636  0.00000  0.00000     9.450    0    0.000;
  5 6   100.00    66.00 60 0  0.00  0.00000  0.00010  0.00000  0.00000  0.00000    99.990     0    0.000;
  5 23   100.00    66.00 60 0  0.00  0.11340  0.23710  0.00340  0.00000  0.00000     0.500    0    0.000;
  6 22   100.00    66.00 60 0  0.00  0.18920  0.40450  0.00570  0.00000  0.00000     0.500    0    0.000;
  7 12   100.00   220.00 60 0  0.00  0.00080  0.00758  0.01220  0.00000  0.00000     4.150    0    0.000;
  7 15   100.00   220.00 60 0  0.00  0.00118  0.00525  0.00734  0.00000  0.00000     2.940    0    0.000;
  11 172   100.00   132.00 60 0  0.00  0.04140  0.18600  0.03803  0.00000  0.00000     1.550    0    0.000;
  12 17   100.00   220.00 60 0  0.00  0.00186  0.01775  0.02631  0.00000  0.00000     4.150    0    0.000;
  17 20   100.00   220.00 60 0  0.00  0.00150  0.01421  0.02098  0.00000  0.00000     0.000    0    0.000;
  17 76   100.00   220.00 60 0  0.00  0.01123  0.10655  0.15787  0.00000  0.00000     4.150    0    0.000;
  17 76   100.00   220.00 60 0  0.00  0.00673  0.06290  0.22871  0.00000  0.00000     9.430   0    0.000;
  21 25   100.00   220.00 60 0  0.00  0.00702  0.04602  0.06492  0.00000  0.00000     3.000    0    0.000;
  22 24   100.00    66.00 60 0  0.00  0.09229  0.11961  0.00156  0.00000  0.00000     0.500    0    0.000;
  23 24   100.00    66.00 60 0  0.00  0.12833  0.28719  0.00422  0.00000  0.00000     0.500    0    0.000;
  24 44   100.00    66.00 60 0  0.00  0.10000  0.15000  0.00200  0.00000  0.00000     0.200    0    0.000;
  25 57   100.00   220.00 60 0  0.00  0.00500  0.03280  0.04560  0.00000  0.00000     3.170    0    0.000;
  26 40   100.00   132.00 60 0  0.00  0.02416  0.06049  0.01107  0.00000  0.00000     1.550    0    0.000;
  30 35   100.00    66.00 60 0  0.00  0.00600  0.01500  0.00000  0.00000  0.00000     0.700    0    0.000;
  31 35   100.00    66.00 60 0  0.00  0.02390  0.05990  0.00070  0.00000  0.00000     1.000    0    0.000;
  35 38   100.00    66.00 60 0  0.00  0.00000  0.00010  0.00000  0.00000  0.00000     0.200    0    0.000;
  35 44   100.00    66.00 60 0  0.00  0.06150  0.15910  0.00240  0.00000  0.00000     0.200    0    0.000;
  35 54   100.00    66.00 60 0  0.00  0.03990  0.10010  0.00110  0.00000  0.00000     0.680    0    0.000;
  39 41   100.00   220.00 60 0  0.00  0.00023  0.00222  0.00329  0.00000  0.00000     4.150    0    0.000;
  39 48   100.00   220.00 60 0  0.00  0.00019  0.00178  0.00263  0.00000  0.00000     4.150    0    0.000;
  39 57   100.00   220.00 60 0  0.00  0.00187  0.01776  0.02631  0.00000  0.00000     4.150    0    0.000;
  40 47   100.00   132.00 60 0  0.00  0.00055  0.00324  0.00018  0.00000  0.00000     1.500    0    0.000;
  41 46   100.00   220.00 60 0  0.00  0.00540  0.03262  0.04616  0.00000  0.00000     3.170    0    0.000;
  41 57   100.00   220.00 60 0  0.00  0.00255  0.01541  0.02180  0.00000  0.00000     3.040    0    0.000;
  41 75   100.00   220.00 60 0  0.00  0.00090  0.00852  0.01259  0.00000  0.00000     4.150    0    0.000;
  49 55   100.00   132.00 60 0  0.00  0.00068  0.00191  0.02173  0.00000  0.00000     1.370    0    0.000;
  49 58   100.00   132.00 60 0  0.00  0.00677  0.01915  0.19623  0.00000  0.00000     1.370    0    0.000;
  55 56   100.00   132.00 60 0  0.00  0.00830  0.03772  0.00758  0.00000  0.00000     1.370    0    0.000;
  56 69   100.00   132.00 60 0  0.00  0.00352  0.00996  0.10204  0.00000  0.00000     1.370    0    0.000;
  57 71   100.00   220.00 60 0  0.00  0.00208  0.01308  0.01975  0.00000  0.00000     3.170    0    0.000;
  57 71   100.00   220.00 60 0  0.00  0.00208  0.01308  0.01975  0.00000  0.00000     3.170    0    0.000;
  57 76   100.00   220.00 60 0  0.00  0.00880  0.05340  0.07600  0.00000  0.00000     3.040    0    0.000;
  58 59   100.00   132.00 60 0  0.00  0.00380  0.00840  0.02190  0.00000  0.00000     1.000    0    0.000;
  58 69   100.00   132.00 60 0  0.00  0.00460  0.01700  0.00330  0.00000  0.00000     1.000    0    0.000;
  59 82   100.00   132.00 60 0  0.00  0.00050  0.00230  0.03250  0.00000  0.00000     1.000    0    0.000;
  61 71   100.00   220.00 60 0  0.00  0.00041  0.00262  0.00460  0.00000  0.00000     3.170    0    0.000;
  62 71   100.00   220.00 60 0  0.00  0.00041  0.00262  0.00460  0.00000  0.00000     3.170    0    0.000;
  64 71   100.00   220.00 60 0  0.00  0.00041  0.00262  0.00460  0.00000  0.00000     3.170    0    0.000;
  66 71   100.00   220.00 60 0  0.00  0.00041  0.00262  0.00460  0.00000  0.00000     3.170    0    0.000;
  69 84   100.00   132.00 60 0  0.00  0.00320  0.00570  0.10540  0.00000  0.00000     1.000    0    0.000;
  71 75   100.00   220.00 60 0  0.00  0.00220  0.02120  0.03210  0.00000  0.00000     4.150    0    0.000;
  72 73   100.00   132.00 60 0  0.00  0.00110  0.00460  0.00100  0.00000  0.00000     1.000    0    0.000;
  72 92   100.00   132.00 60 0  0.00  0.00465  0.01776  0.00547  0.00000  0.00000     1.000    0    0.000;
  72 93   100.00   132.00 60 0  0.00  0.02530  0.10100  0.02190  0.00000  0.00000     1.570    0    0.000;
  76 80   100.00   220.00 60 0  0.00  0.00070  0.00400  0.00610  0.00000  0.00000     3.040    0    0.000;
  76 81   100.00   220.00 60 0  0.00  0.00040  0.00377  0.00557  0.00000  0.00000     5.600    0    0.000;
  76 81   100.00   220.00 60 0  0.00  0.00039  0.00370  0.00547  0.00000  0.00000     5.600    0    0.000;
  77 103   100.00   132.00 60 0  0.00  0.01060  0.04760  0.00985  0.00000  0.00000     1.550    0    0.000;
  82 86   100.00   132.00 60 0  0.00  0.00196  0.00418  0.04905  0.00000  0.00000     1.000    0    0.000;
  88 90   100.00   132.00 60 0  0.00  0.00402  0.00674  0.10825  0.00000  0.00000     1.000    0    0.000;
  90 92   100.00   132.00 60 0  0.00  0.00010  0.00042  0.00591  0.00000  0.00000     1.000    0    0.000;
  93 96   100.00   132.00 60 0  0.00  0.00354  0.02140  0.00392  0.00000  0.00000     1.940    0    0.000;
  94 96   100.00   132.00 60 0  0.00  0.00290  0.01159  0.00251  0.00000  0.00000     1.570    0    0.000;
  96 97   100.00   132.00 60 0  0.00  0.00583  0.03524  0.00646  0.00000  0.00000     1.940    0    0.000;
  103 119   100.00   132.00 60 0  0.00  0.04090  0.18290  0.03775  0.00000  0.00000     1.550    0    0.000;
  109 113   100.00   132.00 60 0  0.00  0.02480  0.11120  0.02270  0.00000  0.00000     1.550    0    0.000;
  109 119   100.00   132.00 60 0  0.00  0.01780  0.08000  0.01636  0.00000  0.00000     1.550    0    0.000;
  113 115   100.00   132.00 60 0  0.00  0.04290  0.19270  0.03945  0.00000  0.00000     1.550    0    0.000;
  119 123   100.00   132.00 60 0  0.00  0.03850  0.17270  0.03560  0.00000  0.00000     1.550    0    0.000;
  123 125   100.00   132.00 60 0  0.00  0.01800  0.07970  0.01590  0.00000  0.00000     1.550    0    0.000;
  125 130   100.00   132.00 60 0  0.00  0.01690  0.07500  0.01530  0.00000  0.00000     1.550    0    0.000;
  130 132   100.00   132.00 60 0  0.00  0.08390  0.21560  0.04270  0.00000  0.00000     1.010    0    0.000;
  132 137   100.00   132.00 60 0  0.00  0.04350  0.19520  0.04000  0.00000  0.00000     1.550    0    0.000;
  133 143   100.00    66.00 60 0  0.00  0.35284  0.55640  0.00500  0.00000  0.00000     0.400    0    0.000;
  137 176   100.00   132.00 60 0  0.00  0.06485  0.29293  0.06014  0.00000  0.00000     1.550    0    0.000;
  141 142   100.00    11.00 60 0  0.00  0.00000  0.00010  0.00000  0.00000  0.00000     0.000    0    0.000;
  155 157   100.00   132.00 60 0  0.00  0.01419  0.01638  0.10193  0.00000  0.00000     0.950    0    0.000;
  155 158   100.00   132.00 60 0  0.00  0.01663  0.07017  0.01485  0.00000  0.00000     0.850    0    0.000;
  155 161   100.00   132.00 60 0  0.00  0.02640  0.11823  0.02420  0.00000  0.00000     0.850    0    0.000;
  155 176   100.00   132.00 60 0  0.00  0.01322  0.04968  0.08516  0.00000  0.00000     1.550    0    0.000;
  159 185   100.00    66.00 60 0  0.00  0.30532  0.50960  0.00300  0.00000  0.00000     0.400    0    0.000;
  161 166   100.00   132.00 60 0  0.00  0.03990  0.17910  0.03670  0.00000  0.00000     1.550    0    0.000;
  166 170   100.00   132.00 60 0  0.00  0.00000 -0.40174  0.00000  0.00000  0.00000     1.550    0    0.000;
  170 172   100.00   132.00 60 0  0.00  0.08830  0.40000  0.08380  0.00000  0.00000     1.550    0    0.000;
  177 188   100.00   220.00 60 0  0.00  0.00219  0.03499  0.08180  0.00000  0.00000    11.500   0   0.000;
  188 189   100.00   220.00 60 0  0.00  0.00000  0.00010  0.00000  0.00000  0.00000   100.000    0    0.000;
  1 2    86.00   220.00 60 0 17.42  0.00481  0.14783  0.00000  1.00000  0.00000     1.000    0    0.000;
  1 3    86.00   220.00 60 0 17.42  0.00481  0.14783  0.00000  1.00000  0.00000     1.000    0    0.000;
  1 4   111.00   220.00 60 0 16.64  0.00292  0.11300  0.00000  1.00000  0.00000     1.000    0    0.000;
  5 2    40.00    66.00 60 0  4.78  0.01616  0.10100  0.00000  1.00000  0.00000     1.000    0    0.00;
  6 3    40.00    66.00 60 0  4.78  0.01616  0.10100  0.00000  1.00000  0.00000     1.000    0    0.00;
  7 8    63.00   220.00 60 0 23.41  0.00373  0.12900  0.00000  1.00000  0.00000     1.000    0    0.000;
  7 9    63.00   220.00 60 0 23.41  0.00373  0.12900  0.00000  1.00000  0.00000     1.000    0    0.000;
  7 10    63.00   220.00 60 0 23.41  0.00373  0.12900  0.00000  1.00000  0.00000     1.000    0    0.000;
  7 11   100.00   220.00 60 0  1.82  0.00200  0.10810  0.00000  1.00000  0.00000     1.000    0    0.00;
  12 13    86.00   220.00 60 0 17.84  0.00444  0.15000  0.00000  1.00000  0.00000     1.000    0    0.000;
  12 14    86.00   220.00 60 0 17.84  0.00444  0.15000  0.00000  1.00000  0.00000     1.000    0    0.000;
  15 16    50.00   220.00 60 0 21.96  0.00640  0.12850  0.00000  1.00000  0.00000     1.000    0    0.000;
  17 18    75.00   220.00 60 0 20.00  0.00637  0.12825  0.00000  1.00000  0.00000     1.000    0    0.000;
  17 19    75.00   220.00 60 0 20.00  0.00637  0.12825  0.00000  1.00000  0.00000     1.000    0    0.000;
  25 26    63.00   220.00 60 0  1.67  0.00258  0.12600  0.00000  1.00000  0.00000     1.000    0    0.00;
  26 27    21.00   132.00 60 0 13.14  0.00823  0.10940  0.00000  1.00000  0.00000     1.000    0    0.000;
  26 28    21.00   132.00 60 0 13.14  0.00810  0.10980  0.00000  1.00000  0.00000     1.000    0    0.000;
  26 29    21.00   132.00 60 0 13.14  0.00519  0.09900  0.00000  1.00000  0.00000     1.000    0    0.000;
  26 30    50.00   132.00 60 0  1.95  0.00583  0.11670  0.00000  1.00000  0.00000     1.000    0    0.00;
  31 32    20.00    66.00 60 0 10.00  0.00350  0.11900  0.00000  1.00000  0.00000     1.000    0    0.00;
  31 33    20.00    66.00 60 0 10.00  0.00350  0.11900  0.00000  1.00000  0.00000     1.000    0    0.00;
  31 34    16.50    66.00 60 0 10.00  0.00049  0.11797  0.00000  1.00000  0.00000     1.000    0    0.000;
  35 36    20.00    66.00 60 0 10.00  0.00425  0.06490  0.00000  1.00000  0.00000     1.000    0    0.000;
  35 37   100.00    66.00 60 0  6.00  0.16000  1.60000  0.00000  1.00000  0.00000     0.000    0    0.000;
  39 40   100.00   220.00 60 0  1.67  0.00110  0.05250  0.00000  1.00000  0.00000     0.000    0    0.000;
  41 42    50.00   220.00 60 0 20.00  0.00640  0.12850  0.00000  1.00000  0.00000     1.000    0    0.000;
  41 43    50.00   220.00 60 0 20.00  0.00640  0.12850  0.00000  1.00000  0.00000     1.000    0    0.000;
  44 45    10.00    66.00 60 0  2.00  0.05000  0.10000  0.00000  1.00000  0.00000     1.000    0    0.000;
  49 50    40.00   132.00 60 0 12.00  0.00522  0.07661  0.00000  1.00000  0.00000     1.000    0    0.000;
  49 51    40.00   132.00 60 0 12.00  0.00522  0.07661  0.00000  1.00000  0.00000     1.000    0    0.000;
  49 52    40.00   132.00 60 0 12.00  0.00522  0.07661  0.00000  1.00000  0.00000     1.000    0    0.000;
  49 53    40.00   132.00 60 0 12.00  0.00522  0.07661  0.00000  1.00000  0.00000     1.000    0    0.000;
  57 58   140.00   220.00 60 0  1.68  0.00110  0.04270  0.00000  1.00000  0.00000     0.500    0    0.00;
  61 60   220.00   220.00 60 0 10.27  0.00200  0.05150  0.00000  1.00000  0.00000     0.500    0    0.000;
  62 63   153.00   220.00 60 0  6.54  0.00256  0.12000  0.00000  1.00000  0.00000     1.000    0    0.000;
  64 65   250.00   220.00 60 0  6.54  0.00256  0.12000  0.00000  1.00000  0.00000     1.000    0    0.000;
  66 67   250.00   220.00 60 0  6.54  0.00256  0.12000  0.00000  1.00000  0.00000     1.000    0    0.000;
  66 68   250.00   220.00 60 0  6.54  0.00256  0.12000  0.00000  1.00000  0.00000     1.000    0    0.000;
  69 70    60.00   132.00 60 0  3.98  0.00270  0.06000  0.00000  1.00000  0.00000     0.500    0    0.00;
  71 72   200.00   220.00 60 0  1.64  0.00110  0.06000  0.00000  1.00000  0.00000     0.500    0    0.00;
  73 74    20.00   132.00 60 0  11.64  0.01000  0.10000  0.00000  1.00000  0.00000     1.000    0    0.000;
  76 77   134.00   220.00 60 0  1.68  0.00180  0.06080  0.00000  1.00000  0.00000     0.500    0    0.00;
  77 78    20.00   132.00 60 0  1.93  0.00378  0.08060  0.00000  1.00000  0.00000     1.000    0    0.000;
  78 79    15.00    66.00 60 0  6.00  0.01500  0.27000  0.00000  1.00000  0.00000     1.000    0    0.000;
  82 83   160.00   132.00 60 0 11.40  0.00150  0.00310  0.00000  1.00000  0.00000     0.250    0    0.000;
  85 84    50.00    11.00 60 0  0.08  0.00300  0.06000  0.00000  1.00000  0.00000     0.500    0    0.000;
  87 86    50.00    11.00 60 0  0.08  0.00300  0.06000  0.00000  1.00000  0.00000     0.500    0    0.000;
  89 88    60.00    11.00 60 0  0.08  0.00360  0.07200  0.00000  1.00000  0.00000     0.500    0    0.000;
  91 90    60.00    11.00 60 0  0.08  0.00360  0.07200  0.00000  1.00000  0.00000     0.500    0    0.000;
  94 95    55.00   132.00 60 0 12.00  0.00615  0.12000  0.00000  1.00000  0.00000     1.182    0    0.000;
  94 102    55.00   132.00 60 0 12.00  0.00615  0.12000  0.00000  1.00000  0.00000     1.182    0    0.000;
  97 98    55.00   132.00 60 0 12.00  0.00282  0.09414  0.00000  1.00000  0.00000     1.000    0    0.000;
  97 99    55.00   132.00 60 0 12.00  0.00282  0.09414  0.00000  1.00000  0.00000     1.000    0    0.000;
  97 100    45.00   132.00 60 0 12.00  0.00420  0.14004  0.00000  1.00000  0.00000     1.111    0    0.000;
  97 101    45.00   132.00 60 0 12.00  0.00420  0.14004  0.00000  1.00000  0.00000     1.111    0.000    0.000;
  103 104    30.00   132.00 60 0  1.93  0.00347  0.11500  0.00000  1.00000  0.00000     1.000    0.000    0.000;
  104 105    10.00    66.00 60 0  3.47  0.00600  0.06000  0.00000  1.00000  0.00000     1.000    0.000    0.000;
  104 107     4.00    66.00 60 0  6.00  0.00440  0.07200  0.00000  1.00000  0.00000     1.000    0.000    0.000;
  105 106     0.10    19.00 60 0 45.78  0.00450  0.04500  0.00000  1.00000  0.00000     1.000    0.0000    0.000;
  105 108     4.00    19.00 60 0  1.73  0.00440  0.07200  0.00000  1.00000  0.00000     1.000    0.000    0.000;
  109 110    12.50   132.00 60 0  6.95  0.00635  0.09870  0.00000  1.00000  0.00000     1.000    0.000    0.000;
  110 111     0.10    19.00 60 0 45.78  0.00450  0.04500  0.00000  1.00000  0.00000     1.000    0.00    0.000;
  110 112     4.00    19.00 60 0  1.73  0.00440  0.07200  0.00000  1.00000  0.00000     1.000    0.000    0.000;
  113 114    10.00   132.00 60 0  3.74  0.00477  0.09170  0.00000  1.00000  0.00000     1.000    0.00    0.00;
  115 116    30.00   132.00 60 0  1.96  0.00447  0.12180  0.00000  1.00000  0.00000     1.000    0.000    0.000;
  116 118    10.00    66.00 60 0  2.00  0.00536  0.13302  0.00000  1.00000  0.00000     1.000    0.000    0.000;
  117 118    10.00     6.30 60 0  0.19  0.00431  0.07931  0.00000  1.00000  0.00000     1.000    0.000    0.000;
  119 120    12.50   132.00 60 0  6.81  0.00552  0.09870  0.00000  1.00000  0.00000     1.000    0.000    0.000;
  120 121     0.10    19.00 60 0 45.78  0.00400  0.04000  0.00000  1.00000  0.00000     1.000    0.00    0.000;
  120 122     4.00    19.00 60 0  1.73  0.00440  0.07200  0.00000  1.00000  0.00000     1.000    0.000    0.000;
  123 124    10.00   132.00 60 0  3.84  0.00535  0.12914  0.00000  1.00000  0.00000     1.000    0.00    0.00;
  125 126    63.00   132.00 60 0 12.00  0.00297  0.10510  0.00000  1.00000  0.00000     1.000    0.000    0.000;
  125 127    63.00   132.00 60 0 12.00  0.00297  0.10510  0.00000  1.00000  0.00000     1.000    0.000    0.000;
  126 128     2.50    11.00 60 0  1.00  0.00060  0.06000  0.00000  1.00000  0.00000     1.000    0.000    0.000;
  127 129     2.50    11.00 60 0  1.00  0.00060  0.06000  0.00000  1.00000  0.00000     1.000    0.000    0.000;
  130 131    16.00   132.00 60 0  1.92  0.00499  0.14320  0.00000  1.00000  0.00000     1.000    0.00    0.00;
  132 133    60.00   132.00 60 0  1.96  0.00492  0.11790  0.00000  1.00000  0.00000     1.000    0.00    0.00;
  133 134     7.50    66.00 60 0  6.00  0.00800  0.08000  0.00000  1.00000  0.00000     1.000    0.00    0.000;
  134 135     0.10    11.00 60 0 26.51  0.00600  0.06000  0.00000  1.00000  0.00000     1.000    0.00    0.000;
  134 136     0.10    11.00 60 0  1.00  0.00011  0.00180  0.00000  1.00000  0.00000     1.000    0.00    0.000;
  137 138    37.50   132.00 60 0 12.00  0.00420  0.14004  0.00000  1.00000  0.00000     1.000    0.000    0.000;
  137 139    37.50   132.00 60 0 12.00  0.00420  0.14044  0.00000  1.00000  0.00000     1.000    0.000    0.000;
  138 140     0.10    11.00 60 0 26.51  0.00440  0.04400  0.00000  1.00000  0.00000     1.000    0.000    0.000;
  139 140     0.10    11.00 60 0 26.51  0.00440  0.04400  0.00000  1.00000  0.00000     1.000    0.000    0.000;
  139 141     3.10    11.00 60 0  1.00  0.00629  0.06169  0.00000  1.00000  0.00000     1.016    0.00    0.00;
  143 144    37.50    66.00 60 0  6.00  0.00694  0.13939  0.00000  1.00000  0.00000     1.000    0.000    0.000;
  143 145    10.00    66.00 60 0  2.05  0.00420  0.08430  0.00000  1.00000  0.00000     1.000    0.00    0.00;
  143 146     6.30    66.00 60 0 10.00  0.01002  0.10017  0.00000  1.00000  0.00000     1.000    0.00    0.000;
  143 147    10.00    66.00 60 0  6.00  0.01200  0.12000  0.00000  1.00000  0.00000     1.000    0.00    0.000;
  144 148     0.30    11.00 60 0 28.95  0.00573  0.05730  0.00000  1.00000  0.00000     1.033    0.00    0.000;
  146 152   100.00     6.60 60 0  1.00  0.00100  0.01000  0.00000  1.00000  0.00000     0.000    0.000    0.000;
  147 149     0.30    11.00 60 0 50.00  0.00573  0.05730  0.00000  1.00000  0.00000     1.033    0.00    0.000;
  148 152     0.30     0.38 60 0  0.06  0.00573  0.05730  0.00000  1.00000  0.00000     1.033    0.00    0.000;
  149 153   100.00     0.22 60 0  0.03  0.96000  9.55000  0.00000  1.00000  0.00000     0.000    0.000    0.000;
  150 153   100.00     0.38 60 0  0.06  2.66700 26.67000  0.00000  1.00000  0.00000     0.000    0.000    0.000;
  151 153   100.00     0.22 60 0  0.03  2.66700 26.67000  0.00000  1.00000  0.00000     0.000    0.000    0.000;
  152 153     0.30     6.60 60 0  1.00  0.00288  0.02865  0.00000  1.00000  0.00000     1.033    0.00    0.000;
  152 154   100.00     6.60 60 0 30.00  2.66700 26.67000  0.00000  1.00000  0.00000     0.000    0.000    0.000;
  157 156    32.00   132.00 60 0  1.96  0.00563  0.12099  0.00000  1.00000  0.00000     1.000    0.00    0.00;
  158 159    30.00   132.00 60 0  1.96  0.00347  0.11500  0.00000  1.00000  0.00000     1.000    0.000    0.000;
  159 160     0.10    66.00 60 0  6.00  0.00011  0.00180  0.00000  1.00000  0.00000     1.000    0.00    0.000;
  161 163    20.00   132.00 60 0  4.06  0.00600  0.10780  0.00000  1.00000  0.00000     1.000    0.000    0.000;
  163 162    10.00    33.00 60 0  3.00  0.00600  0.06000  0.00000  1.00000  0.00000     1.000    0.000    0.000;
  162 164     0.10    11.00 60 0 26.51  0.00440  0.04400  0.00000  1.00000  0.00000     1.000    0.000    0.000;
  163 165     4.00    33.00 60 0  3.00  0.00440  0.07200  0.00000  1.00000  0.00000     1.000    0.000    0.000;
  166 167    20.00   132.00 60 0 12.20  0.00454  0.10770  0.00000  1.00000  0.00000     1.000    0.000    0.000;
  167 168     0.10    11.00 60 0 26.51  0.00440  0.04400  0.00000  1.00000  0.00000     1.000    0.000    0.000;
  167 169     4.00    11.00 60 0  1.00  0.00440  0.07200  0.00000  1.00000  0.00000     1.000    0.000    0.000;
  167 171     2.10    11.00 60 0  0.58  0.00630  0.06930  0.00000  1.00000  0.00000     1.000    0.000    0.000;
  172 173    10.00   132.00 60 0  6.95  0.00508  0.07896  0.00000  1.00000  0.00000     1.000    0.000    0.000;
  173 174     0.10    19.00 60 0 45.78  0.00450  0.04500  0.00000  1.00000  0.00000     1.000    0.000    0.000;
  173 175     4.00    19.00 60 0  1.73  0.00440  0.07200  0.00000  1.00000  0.00000     1.000    0.000    0.000;
  177 176   150.00   220.00 60 0  1.62  0.00363  0.12000  0.00000  1.00000  0.00000     1.000    0.00    0.00;
  188 178    25.00   220.00 60 0 20.00  0.00500  0.12000  0.00000  1.00000  0.00000     1.000    0.00    0.00;
  188 179   160.00   220.00 60 0  3.19  0.00501  0.12000  0.00000  1.00000  0.00000     1.000    0.00    0.00;
  188 180   160.00   220.00 60 0  3.19  0.00501  0.12000  0.00000  1.00000  0.00000     1.000    0.00    0.00;
  188 181   160.00   220.00 60 0  3.19  0.00501  0.12000  0.00000  1.00000  0.00000     1.000    0.00    0.00;
  188 182   160.00   220.00 60 0  3.19  0.00501  0.12000  0.00000  1.00000  0.00000     1.000    0.00    0.00;
  188 183   160.00   220.00 60 0  3.19  0.00501  0.12000  0.00000  1.00000  0.00000     1.000    0.00    0.00;
  189 184    25.00   220.00 60 0 20.00  0.00500  0.12000  0.00000  1.00000  0.00000     1.000    0.00    0.00;
  185 186    10.00    66.00 60 0 10.00  0.00300  0.05850  0.00000  1.00000  0.00000     1.000    0.000    0.000;
  185 187    22.00    66.00 60 0  6.00  0.00300  0.05850  0.00000  1.00000  0.00000     1.000    0.000    0.000;
   ];

Syn.con = [ ... 
   10       69.3      10.5      60    5.2       0.15      0.0015    1.056   0.279         0.2055     9.5         0.116   0.89     0        0.2055   0     0.50     8.0      0        0        0        1        1    0.002        0.1371        0.3318 ;
   2        106.6     13.8      60    5.2       0.15      0.0015    1.31    0.3038        0.2827     4.79        0.078   0.8285   0        0.2827   0     0.12     5.5      0        0        0        1        1    0.002        0.082         0.284 ;
   3        106.6     13.8      60    5.2       0.15      0.0015    1.31    0.3038        0.2827     4.79        0.078   0.8285   0        0.2827   0     0.12     5.5      0        0        0        1        1    0.002        0.082         0.284 ;
   4        53.30     13.8      60    5.2       0.15      0.0015    1.31    0.3038        0.2827     4.79        0.078   0.8285   0        0.2827   0     0.12     5.5      0        0        0        1        1    0.002        0.082         0.284 ;
   8        69.30     10.5      60    5.2       0.15      0.0015    1.056   0.279         0.2055     9.50        0.116   0.89     0        0.2055   0     0.5      8.0      0        0        0        1        1    0.002        0.1371        0.3318 ;
   9        69.30     10.5      60    5.2       0.15      0.0015    1.056   0.279         0.2055     9.50        0.116   0.89     0        0.2055   0     0.5      8.0      0        0        0        1        1    0.002        0.1371        0.3318 ;
   13       81.50     13.8      60    5.2       0.1       0.0015    0.93    0.230         0.160      5.30        0.06    0.55     0        0.160    0     0.17     7.02     0        0        0        1        1    0.002        0.10          0.270 ;
   14       81.50     13.8      60    5.2       0.1       0.0015    0.93    0.230         0.160      5.30        0.06    0.55     0        0.160    0     0.17     7.02     0        0        0        1        1    0.002        0.10          0.270 ;
   16       81.50     13.8      60    5.2       0.1       0.0015    0.93    0.230         0.160      5.30        0.06    0.55     0        0.2827   0     0.17     8.0      0        0        0        1        1    0.002        0.10          0.270 ;
   18       66.67     11.0      60    5.2       0.1       0.0015    0.9     0.250         0.160      5.30        0.06    0.675    0        0.160    0     0.17     7.0      0        0        0        1        1    0.002        0.10          0.270 ;
   19       66.67     11.0      60    5.2       0.1       0.0015    0.9     0.250         0.160      5.30        0.06    0.675    0        0.160    0     0.17     7.0      0        0        0        1        1    0.002        0.10          0.270 ;
   27       19.40     10.5      60    5.2       0.1       0.0015    1.05    0.370         0.270      4.30        0.05    0.620    0        0.270    0     0.15     5.56     0        0        0        1        1    0.002        0.10          0.270 ;
   28       19.40     10.5      60    5.2       0.1       0.0015    1.05    0.370         0.270      4.30        0.05    0.620    0        0.270    0     0.15     5.56     0        0        0        1        1    0.002        0.10          0.270 ;
   29       21.00     10.5      60    5.2       0.1       0.0015    1.02    0.280         0.270      4.30        0.05    0.620    0        0.270    0     0.15     4.12     0        0        0        1        1    0.002        0.10          0.270 ;
   32       16.50     6.60      60    5.2       0.1       0.0015    1.07    0.350         0.230      4.30        0.05    0.580    0        0.230    0     0.19     4.6      0        0        0        1        1    0.002        0.128         0.380 ;
   33       16.50     6.60      60    5.2       0.1       0.0015    1.07    0.350         0.230      4.30        0.05    0.580    0        0.230    0     0.19     4.6      0        0        0        1        1    0.002        0.128         0.380 ;
   36       18.20     6.60      60    5.2       0.1       0.0015    1.01    0.340         0.240      2.10        0.05    0.520    0        0.240    0     0.19     5.6      0        0        0        1        1    0.002        0.10          0.270 ;
   42       55.00     11.0      60    5.2       0.16      0.0015    1.67    0.2239        0.2073     8.0         0.0167  1.250    0.858    0.2073   2.0   0.277    13.16    0        0        0        1        1    0.002        0.1761        0.5416 ;
   43       55.00     11.0      60    5.2       0.16      0.0015    1.67    0.2239        0.2073     8.0         0.0167  1.250    0.858    0.2073   2.0   0.277    13.16    0        0        0        1        1    0.002        0.1761        0.5416 ;
   50       55.00     11.0      60    5.2       0.16      0.0015    1.67    0.2239        0.2073     8.0         0.0167  1.250    0.858    0.2073   2.0   0.277    13.16    0        0        0        1        1    0.002        0.1761        0.5416 ;
   51       55.00     11.0      60    5.2       0.16      0.0015    1.67    0.2239        0.2073     8.0         0.0167  1.250    0.858    0.2073   2.0   0.277    13.16    0        0        0        1        1    0.002        0.1761        0.5416 ;
   52       55.00     11.0      60    5.2       0.16      0.0015    1.67    0.2239        0.2073     8.0         0.0167  1.250    0.858    0.2073   2.0   0.277    13.16    0        0        0        1        1    0.002        0.1761        0.5416 ;
   53       55.00     11.0      60    5.2       0.16      0.0015    1.67    0.2239        0.2073     8.0         0.0167  1.25     0.858    0.2073   2.0   0.277    13.16    0        0        0        1        1    0.002        0.1761        0.5416 ;
   98       55.00     11.0      60    5.2       0.1       0.0015    1.565   0.206         0.18       6.8         0.066   1.520    0.863    0.18     0.66  0.066    4.4      0        0        0        1        1    0.002        0.03          0.25 ;
   99       55.00     11.0      60    5.2       0.1       0.0015    1.565   0.206         0.18       6.8         0.066   1.520    0.863    0.18     0.66  0.066    4.4      0        0        0        1        1    0.002        0.03          0.25 ;
   102      55.00     11.0      60    5.2       0.1       0.0015    1.565   0.206         0.18       6.8         0.066   1.520    0.863    0.18     0.66  0.066    4.4      0        0        0        1        1    0.002        0.03          0.25 ;
   104      81.00     66.0      60    5.2       0.1       0.0015    1.25    0.30          0.20       3.5         0.05    0.70     0        0.20     0     0.1      7.22     0        0        0        1        1    0.002        0.058         0.25 ;
   117      81.00     66.0      60    5.2       0.1       0.0015    1.25    0.30          0.20       3.5         0.05    0.70     0        0.20     0     0.1      7.22     0        0        0        1        1    0.002        0.058         0.25 ;
   126      60.00     11.0      60    5.2       0.15      0.0015    0.931   0.23          0.17       5.3         0.06    0.55     0        0.17     0     0.17     5.5      0        0        0        1        1    0.002        0.23          0.75 ;
   127      60.00     11.0      60    5.2       0.15      0.0015    0.931   0.23          0.17       5.3         0.06    0.55     0        0.17     0     0.17     5.5      0        0        0        1        1    0.002        0.23          0.75 ;
   138      37.50     11.0      60    5.2       0.16      0.0015    1.67    0.2239        0.2073     8.0         0.0167  1.25     0.858    0.2073   2.0   0.277    13.16    0        0        0        1        1    0.002        0.1761        0.5416 ;
   139      37.50     11.0      60    5.2       0.16      0.0015    1.67    0.2239        0.2073     8.0         0.0167  1.25     0.858    0.2073   2.0   0.277    13.16    0        0        0        1        1    0.002        0.1761        0.5416 ;
   142      21.50     11.0      60    5.2       0.1       0.0015    1.565   0.206         0.141      6.8         0.066   1.52     0.863    0.141    0.66  0.066    4.4      0        0        0        1        1    0.002        0.03          0.25 ;
   144      28.00     11.0      60    5.2       0.1       0.0015    0.96    0.24          0.19       4.05        0.05    0.37     0        0.190    0     0.14     6.3      0        0        0        1        1    0.002        0.05          0.25 ;
   186      10.00     6.60      60    5.2       0.1       0.0015    1.25    0.30          0.20       3.60        0.05    0.70     0        0.20     0     0.10     3.14     0        0        0        1        1    0.002        0.05          0.25 ;   
 ];

Exc.con = [ ... 
   1      1        5.37    -4.3     250     1.0      0.249     0.0      0.01    0.01      0.02   0         0 ;
   2      2        6.3     -5.7     18.3    1.64     0.01      0.01     0.00    0.05      0.0167 0         0 ;
   3      2        6.3     -5.7     18.3    1.64     0.01      0.01     0.00    0.05      0.0167 0         0 ;
   4      2        6.3     -5.7     18.3    1.64     0.01      0.01     0.00    0.05      0.0167 0         0 ;
   5      1        5.37    -4.3     250     1.0      0.249     0.0      0.01    0.01      0.02   0         0 ;
   6      1        5.37    -4.3     250     1.0      0.249     0.0      0.01    0.01      0.02   0         0 ;
   7      1        14.0    -14.0    75      1.0      1.0       1.0      1.0     0.01      0.01   0         0 ;
   8      1        14.0    -14.0    75      1.0      1.0       1.0      1.0     0.01      0.01   0         0 ;
   9      1        14.0    -14.0    75      1.0      1.0       1.0      1.0     0.01      0.01   0         0 ;
   10     1        14.0    -14.0    75      1.0      1.0       1.0      1.0     0.01      0.01   0         0 ;
   11     1        14.0    -14.0    75      1.0      1.0       1.0      1.0     0.01      0.01   0         0 ;
   12     2        4.0      0.00    100     100      0.01      100      0.0     0.09      0.01   0         0 ;
   13     2        4.0      0.00    100     100      0.01      100      0.0     0.09      0.01   0         0 ;
   14     2        4.0      0.00    100     100      0.01      100      0.0     0.09      0.01   0         0 ;
   15     2        5.9     -5.9     260     0.05     0.12      1.0      0.0     0.307     0.0167 0         0 ;
   16     2        5.9     -5.9     260     0.05     0.12      1.0      0.0     0.307     0.0167 0         0 ;
   17     2        5.9     -5.9     260     0.05     0.12      1.0      0.0     0.307     0.0167 0         0 ;
   18     2        100     -100     414.4   0.93     0.008     0.5      0.0     0.55      0.01   0         0 ;
   19     2        100     -100     414.4   0.93     0.008     0.5      0.0     0.55      0.01   0         0 ;
   20     2        100     -100     414.4   0.93     0.008     0.5      0.0     0.55      0.01   0         0 ;
   21     2        100     -100     414.4   0.93     0.008     0.5      0.0     0.55      0.01   0         0 ;
   22     2        100     -100     414.4   0.93     0.008     0.5      0.0     0.55      0.01   0         0 ;
   23     2        100     -100     414.4   0.93     0.008     0.5      0.0     0.55      0.01   0         0 ;
   24     2        2.5     -2.5     30.0    0.1      0.15      1.0      0.0     0.5       0.05   0         0 ;
   25     2        2.5     -2.5     30.0    0.1      0.15      1.0      0.0     0.5       0.05   0         0 ;
   26     2        2.5     -2.5     30.0    0.1      0.15      1.0      0.0     0.5       0.05   0         0 ;
   27     2        2.5     -2.5     30.0    0.1      0.15      1.0      0.0     0.5       0.05   0         0 ;
   28     1        4        0.0     175     15       2.805     0.05     0.01    0.01      0.01   0         0 ;
   29     1        50      -50      44      0.45     0.45      0        0       0.01      0.01   0         0 ;
   30     1        50      -50      44      0.45     0.45      0        0       0.01      0.01   0         0 ;
   31     2        3.23     0       133.2   1.116    0.0083    1.2      0.01    0.05      0.015  0         0 ;
   32     2        3.23     0       133.2   1.116    0.0083    1.2      0.01    0.05      0.015  0         0 ;
   33     2        3.5     -3.5     30.0    0.1      0.15      1.0      0.01    0.50      0.05   0         0 ;
   34     2        1.8     -1.8     60      0.05     0.1       1.0      0.01    0.032     0.0167 0         0 ;
   35     2        2.115   -2.115   400     0.04     0.1       1.0      0.01    0.8       0.001  0         0 ;
 ];

Tg.con = [ ... 
   7     1        1     0.1       1.0       0.0     0.03    0.05        0.05    0.01     1.66 ;
   8     1        1     0.1       1.0       0.0     0.03    0.05        0.05    0.01     1.66 ;
   9     1        1     0.787     1.2       0.0     8.0     0.20        0.05    0.01     1.66 ;
   10    1        1     0.1       1.0       0.0     0.03    0.05        0.05    0.01     1.66 ;
   11    1        1     0.1       1.0       0.0     0.03    0.05        0.05    0.01     1.66 ;
   34    1        1     0.833     1.0       0.0     10.0    0.20        0.05    0.01     0.50 ;
 ];

Pss.con = [ ... 
7            2            1          0.1         -0.1            5           10         0.38         0.02         0.38         0.02           25          0.5           20            5        0.045        0.045        0.045       -0.045            1         0.95            0;
8            2            1          0.1         -0.1            5           10         0.38         0.02         0.38         0.02           25          0.5           20            5        0.045        0.045        0.045       -0.045            1         0.95            0; 
19           2            1          0.1         -0.1            5           10         0.38         0.02         0.38         0.02           25          0.5           20            5        0.045        0.045        0.045       -0.045            1         0.95            0;
20           2            1          0.1         -0.1            5           10         0.38         0.02         0.38         0.02           25          0.5           20            5        0.045        0.045        0.045       -0.045            1         0.95            0;
21           2            1          0.1         -0.1            5           10         0.38         0.02         0.38         0.02           25          0.5           20            5        0.045        0.045        0.045       -0.045            1         0.95            0;
22           2            1          0.1         -0.1            5           10         0.38         0.02         0.38         0.02           25          0.5           20            5        0.045        0.045        0.045       -0.045            1         0.95            0;
23           2            1          0.1         -0.1            5           10         0.38         0.02         0.38         0.02           25          0.5           20            5        0.045        0.045        0.045       -0.045            1         0.95            0;
31           2            1          0.1         -0.1            5           10         0.38         0.02         0.38         0.02           25          0.5           20            5        0.045        0.045        0.045       -0.045            1         0.95            0;
32           2            1          0.1         -0.1            5           10         0.38         0.02         0.38         0.02           25          0.5           20            5        0.045        0.045        0.045       -0.045            1         0.95            0;
]

Varname.bus = { ...
  'BURFELL'; 'BURFE-12'; 'BURFE-34'; 'BURFE-56'; 'BUR66SP5';
  'BUR66SP4'; 'SIGALDA'; 'SIGALD12'; 'SIGALD22'; 'SIGALD32';
  'SIGALDA6'; 'HRAUNEY'; 'HRAUNE12'; 'HRAUNE22'; 'VATNSFEL';
  'VATN-V2'; 'SULTARTA'; 'SULT-V1'; 'SULT-V2'; 'BUDARHAL';
  'NUPSVIRK'; 'HVOLSV66'; 'FLUDIR66'; 'HELLA66'; 'IRAFOSS2';
  'IRAFOSS'; 'IRAFO-12'; 'IRAFO-22'; 'IRAFO-32'; 'IRAFOSS5';
  'STEINKA'; 'STEING1'; 'STEING2'; 'ST-SPOLD'; 'LJOSIF';
  'LJOS-VEL'; 'STN1'; 'HG1'; 'HELLISHE'; 'HELLISHE';
  'KOLVIDAR'; 'HELLIS_V'; 'HELLIS_V'; 'SE1'; 'SELFO-33';
  'URRIDAFO'; '_LKELDUH'; 'HVERAHL_'; 'NESJAV'; 'NESV-VEL';
  'NESJA_V2'; 'NESJA_V3'; 'NESJA_V4'; 'NESJAV66'; 'GRAFNING';
  'BRINGUR'; 'GEITHALS'; 'GE-132'; 'RR-A5'; 'ISAL1&2';
  'IS1'; 'IS2'; 'ISAL3'; 'IS3'; 'ISAL3';
  'IS4'; 'ISA4'; 'IS5'; 'KORPA'; 'KO-RR-33';
  'HAMR'; 'HAM'; 'RH'; 'RH-11'; 'SANDSKEI';
  'BRENNIME'; 'BREN-132'; 'BRENN-66'; 'BRESP3DE'; 'FESI';
  'NA'; 'A5'; 'A5-11'; 'A3'; 'A3-11';
  'A1'; 'A1-11'; 'A2'; 'A2-11'; 'A7';
  'A7-11'; 'RR-A7'; 'FITJAR'; 'HS-SVART'; 'SVARTS_V';
  'RAUDIMEL'; 'REYKJANE'; 'REYKJAV1'; 'REYKJAV2'; 'REYKJAN_';
  'REYKJAN_'; 'SVARTVEL'; 'VATNSHAM'; 'VATNS-66'; 'VATNSH19';
  'VATNSH-S'; 'VATNS-D1'; 'VATNS-D2'; 'GLERASKO'; 'GLERA-19';
  'GLERAS-S'; 'GLERA-D1'; 'GEIRADAL'; 'GEIRADA4'; 'MJOLKA';
  'MJOLK-66'; 'MJOLKVEL'; 'MJODUMMY'; 'HRUTATUN'; 'HRUTA-19';
  'HRUTAT-S'; 'HRUTA-D1'; 'LAXARVAT'; 'LAXAVA-4'; 'BLANDA';
  'BLANDAV1'; 'BLANDAV2'; 'BL-STODA'; 'BL-STODB'; 'VARMAHLI';
  'VARMAHL4'; 'RANG'; 'RANGARV5'; 'RANG-11'; 'RANG-S';
  '11DELTA'; 'KRAFLA'; 'KRAFLAV1'; 'KRAFLA11'; 'KRAFLA-S';
  'KRA11BJA'; 'BJARNV1'; 'LAXA'; 'LAXA-2'; 'LAXA33';
  'LAXA6'; 'LAXA11B'; 'LAXA0.38'; 'LAXA0.22'; 'LAXAVERK';
  'LAXASTI'; 'LAXASTN'; 'LAXA6.6B'; 'LAXA0.22'; 'HRYGG';
  'STUDL_66'; 'STUDLAR'; 'EYVIND'; 'EYVIND66'; 'EYV-DELT';
  'TEIG'; 'TEIGHO.2'; 'TEIG-33'; 'TEIGAR.4'; 'TEIGA-D1';
  'HOLAR'; 'HOLAR-11'; 'HOLAR.4'; 'HOLAR-D1'; 'HOLAR-SC';
  'HOLAR-19'; 'PRES'; 'PREST-19'; 'PRESTB.4'; 'PREST-D1';
  'FLJOTSDA'; 'KARAHNJU'; 'AUX_1'; 'DIODE_1'; 'DIODE_2';
  'DIODE_3'; 'DIODE_4'; 'DIODE_5'; 'AUX_2'; 'LAGARFO5';
  'LAGARFO1'; 'LAGAR_V2'; 'ALCOA_1'; 'ALCOA_2'};

